Version 4
SHEET 1 1112 680
WIRE 672 96 640 96
WIRE 800 96 752 96
WIRE 480 208 304 208
WIRE 640 208 640 96
WIRE 640 208 560 208
WIRE 656 208 640 208
WIRE 800 224 800 96
WIRE 800 224 784 224
WIRE 800 256 784 256
WIRE 544 272 416 272
WIRE 640 272 624 272
WIRE 656 272 640 272
WIRE 304 352 304 208
WIRE 416 352 416 272
WIRE 640 352 640 272
WIRE 672 352 640 352
WIRE 800 352 800 256
WIRE 800 352 752 352
WIRE 304 464 304 432
WIRE 368 464 304 464
WIRE 416 464 416 432
WIRE 416 464 368 464
WIRE 368 496 368 464
FLAG 368 496 0
SYMBOL TwoStageFullyDiffOpamp 720 240 R0
SYMATTR InstName OPA1
SYMBOL voltage 416 336 R0
WINDOW 0 11 16 Left 2
WINDOW 3 44 41 Left 2
WINDOW 123 41 67 Left 2
WINDOW 39 0 0 Left 2
SYMATTR InstName Vdd3
SYMATTR Value PULSE(0.9 1 1탎 0.1ns 0.1ns 10탎 100탎 1)
SYMBOL res 640 256 R90
WINDOW 0 0 56 VBottom 2
WINDOW 3 32 56 VTop 2
SYMATTR InstName R1
SYMATTR Value 10k
SYMBOL res 576 192 R90
WINDOW 0 0 56 VBottom 2
WINDOW 3 32 56 VTop 2
SYMATTR InstName R2
SYMATTR Value 10k
SYMBOL res 768 80 R90
WINDOW 0 0 56 VBottom 2
WINDOW 3 32 56 VTop 2
SYMATTR InstName R3
SYMATTR Value 10k
SYMBOL res 768 336 R90
WINDOW 0 0 56 VBottom 2
WINDOW 3 32 56 VTop 2
SYMATTR InstName R4
SYMATTR Value 10k
SYMBOL voltage 304 336 R0
WINDOW 0 11 16 Left 2
WINDOW 3 -521 14 Left 2
WINDOW 123 41 67 Left 2
WINDOW 39 0 0 Left 2
SYMATTR InstName Vdd1
SYMATTR Value PULSE(0.9 1 1탎 0.1ns 0.1ns 10탎 100탎 1)
TEXT 272 552 Left 2 !.tran 0 4탎 0 0.1ns
