Version 4
SHEET 1 880 680
WIRE 176 32 144 32
WIRE 304 32 256 32
WIRE 384 32 368 32
WIRE 32 128 -192 128
WIRE 144 128 144 32
WIRE 144 128 112 128
WIRE 304 128 304 32
WIRE 368 128 368 32
WIRE 368 128 304 128
WIRE 448 128 448 32
WIRE 144 144 144 128
WIRE 160 144 144 144
WIRE 304 160 304 128
WIRE 304 160 288 160
WIRE 448 176 448 128
WIRE 528 176 448 176
WIRE 304 192 288 192
WIRE 160 208 144 208
WIRE 32 224 -80 224
WIRE 144 224 144 208
WIRE 144 224 112 224
WIRE 304 224 304 192
WIRE 368 224 304 224
WIRE 448 224 448 176
WIRE 528 240 528 176
WIRE -192 288 -192 128
WIRE -80 288 -80 224
WIRE 144 304 144 224
WIRE 176 304 144 304
WIRE 304 304 304 224
WIRE 304 304 256 304
WIRE 368 320 368 224
WIRE 384 320 368 320
WIRE 448 320 448 224
WIRE -192 400 -192 368
WIRE -80 400 -80 368
WIRE -80 400 -192 400
WIRE -32 400 -80 400
WIRE 528 400 528 320
WIRE 528 400 -32 400
WIRE -32 448 -32 400
FLAG -32 448 0
SYMBOL TwoStageFullyDiffOpamp 224 176 R0
SYMATTR InstName OPA1
SYMBOL res 128 208 R90
WINDOW 0 0 56 VBottom 2
WINDOW 3 32 56 VTop 2
SYMATTR InstName R
SYMATTR Value 10k
SYMBOL res 128 112 R90
WINDOW 0 0 56 VBottom 2
WINDOW 3 32 56 VTop 2
SYMATTR InstName R.
SYMATTR Value 10k
SYMBOL res 272 288 R90
WINDOW 0 0 56 VBottom 2
WINDOW 3 32 56 VTop 2
SYMATTR InstName R1
SYMATTR Value 20k
SYMBOL res 272 16 R90
WINDOW 0 0 56 VBottom 2
WINDOW 3 32 56 VTop 2
SYMATTR InstName R1.
SYMATTR Value 20k
SYMBOL res 464 112 R90
WINDOW 0 0 56 VBottom 2
WINDOW 3 32 56 VTop 2
SYMATTR InstName RL.
SYMATTR Value 2.5k
SYMBOL res 464 208 R90
WINDOW 0 0 56 VBottom 2
WINDOW 3 32 56 VTop 2
SYMATTR InstName RL
SYMATTR Value 2.5k
SYMBOL cap 448 16 R90
WINDOW 0 0 32 VBottom 2
WINDOW 3 32 32 VTop 2
SYMATTR InstName CL.
SYMATTR Value 10p
SYMBOL cap 448 304 R90
WINDOW 0 0 32 VBottom 2
WINDOW 3 32 32 VTop 2
SYMATTR InstName CL
SYMATTR Value 10p
SYMBOL voltage 528 224 R0
WINDOW 123 0 0 Left 2
WINDOW 39 0 0 Left 2
SYMATTR InstName Vdd/2
SYMATTR Value 0.9
SYMBOL voltage -80 272 R0
WINDOW 123 24 124 Left 2
WINDOW 39 0 0 Left 2
SYMATTR InstName Vdd/2+vf/2
SYMATTR Value SINE(0.9 350m 5Meg 0 0 0 100)
SYMBOL voltage -192 272 R0
WINDOW 123 24 124 Left 2
WINDOW 39 0 0 Left 2
WINDOW 3 -338 11 Left 2
SYMATTR InstName Vdd1
SYMATTR Value SINE(0.9 350m 5Meg 0 0 180 100)
TEXT 72 472 Left 2 !.tran 0 0.002 0 0.01s
